<?xml version="1.0" encoding="UTF-8"?>

<!-- generated on 2025-03-12 21:21:11 by Eclipse SUMO netedit Version 1.22.0
<neteditConfiguration xmlns:xsi="http://www.w3.org/2001/XMLSchema-instance" xsi:noNamespaceSchemaLocation="http://sumo.dlr.de/xsd/neteditConfiguration.xsd">

    <input>
        <sumo-net-file value="E:\学习\毕设\SUMO\net2.net.xml"/>
    </input>

    <output>
        <output-file value="E:\学习\毕设\SUMO\net2.net.xml"/>
    </output>

    <processing>
        <geometry.min-radius.fix.railways value="false"/>
        <geometry.max-grade.fix value="false"/>
        <offset.disable-normalization value="true"/>
        <lefthand value="0"/>
    </processing>

    <junctions>
        <no-turnarounds value="true"/>
        <junctions.corner-detail value="5"/>
        <junctions.limit-turn-speed value="5.50"/>
        <rectangular-lane-cut value="0"/>
    </junctions>

    <pedestrian>
        <walkingareas value="0"/>
    </pedestrian>

</neteditConfiguration>
-->

<net version="1.20" junctionCornerDetail="5" limitTurnSpeed="5.50" xmlns:xsi="http://www.w3.org/2001/XMLSchema-instance" xsi:noNamespaceSchemaLocation="http://sumo.dlr.de/xsd/net_file.xsd">

    <location netOffset="0.00,0.00" convBoundary="-300.00,-100.00,300.00,100.00" origBoundary="-10000000000.00,-10000000000.00,10000000000.00,10000000000.00" projParameter="!"/>

    <edge id=":J1_0" function="internal">
        <lane id=":J1_0_0" index="0" speed="6.79" length="9.68" width="4.00" shape="-10.00,16.00 -10.38,13.37 -11.50,11.50 -13.37,10.38 -16.00,10.00"/>
    </edge>
    <edge id=":J1_1" function="internal">
        <lane id=":J1_1_0" index="0" speed="20.00" length="32.00" width="4.00" shape="-10.00,16.00 -10.00,-16.00"/>
        <lane id=":J1_1_1" index="1" speed="20.00" length="32.00" width="4.00" shape="-6.00,16.00 -6.00,-16.00"/>
        <lane id=":J1_1_2" index="2" speed="20.00" length="32.00" width="4.00" shape="-2.00,16.00 -2.00,-16.00"/>
    </edge>
    <edge id=":J1_4" function="internal">
        <lane id=":J1_4_0" index="0" speed="11.29" length="7.79" width="4.00" shape="-2.00,16.00 -0.90,8.29"/>
    </edge>
    <edge id=":J1_20" function="internal">
        <lane id=":J1_20_0" index="0" speed="11.29" length="21.24" width="4.00" shape="-0.90,8.29 -0.88,8.12 2.50,2.50 8.12,-0.88 16.00,-2.00"/>
    </edge>
    <edge id=":J1_5" function="internal">
        <lane id=":J1_5_0" index="0" speed="6.79" length="9.68" width="4.00" shape="16.00,10.00 13.37,10.38 11.50,11.50 10.38,13.37 10.00,16.00"/>
    </edge>
    <edge id=":J1_6" function="internal">
        <lane id=":J1_6_0" index="0" speed="20.00" length="32.00" width="4.00" shape="16.00,10.00 -16.00,10.00"/>
        <lane id=":J1_6_1" index="1" speed="20.00" length="32.00" width="4.00" shape="16.00,6.00 -16.00,6.00"/>
        <lane id=":J1_6_2" index="2" speed="20.00" length="32.00" width="4.00" shape="16.00,2.00 -16.00,2.00"/>
    </edge>
    <edge id=":J1_9" function="internal">
        <lane id=":J1_9_0" index="0" speed="11.29" length="7.79" width="4.00" shape="16.00,2.00 8.29,0.90"/>
    </edge>
    <edge id=":J1_21" function="internal">
        <lane id=":J1_21_0" index="0" speed="11.29" length="21.24" width="4.00" shape="8.29,0.90 8.12,0.88 2.50,-2.50 -0.88,-8.12 -2.00,-16.00"/>
    </edge>
    <edge id=":J1_10" function="internal">
        <lane id=":J1_10_0" index="0" speed="6.79" length="9.68" width="4.00" shape="10.00,-16.00 10.38,-13.37 11.50,-11.50 13.37,-10.38 16.00,-10.00"/>
    </edge>
    <edge id=":J1_11" function="internal">
        <lane id=":J1_11_0" index="0" speed="20.00" length="32.00" width="4.00" shape="10.00,-16.00 10.00,16.00"/>
        <lane id=":J1_11_1" index="1" speed="20.00" length="32.00" width="4.00" shape="6.00,-16.00 6.00,16.00"/>
        <lane id=":J1_11_2" index="2" speed="20.00" length="32.00" width="4.00" shape="2.00,-16.00 2.00,16.00"/>
    </edge>
    <edge id=":J1_14" function="internal">
        <lane id=":J1_14_0" index="0" speed="11.29" length="7.79" width="4.00" shape="2.00,-16.00 0.90,-8.29"/>
    </edge>
    <edge id=":J1_22" function="internal">
        <lane id=":J1_22_0" index="0" speed="11.29" length="21.24" width="4.00" shape="0.90,-8.29 0.88,-8.12 -2.50,-2.50 -8.12,0.88 -16.00,2.00"/>
    </edge>
    <edge id=":J1_15" function="internal">
        <lane id=":J1_15_0" index="0" speed="6.79" length="9.68" width="4.00" shape="-16.00,-10.00 -13.37,-10.38 -11.50,-11.50 -10.38,-13.37 -10.00,-16.00"/>
    </edge>
    <edge id=":J1_16" function="internal">
        <lane id=":J1_16_0" index="0" speed="20.00" length="32.00" width="4.00" shape="-16.00,-10.00 16.00,-10.00"/>
        <lane id=":J1_16_1" index="1" speed="20.00" length="32.00" width="4.00" shape="-16.00,-6.00 16.00,-6.00"/>
        <lane id=":J1_16_2" index="2" speed="20.00" length="32.00" width="4.00" shape="-16.00,-2.00 16.00,-2.00"/>
    </edge>
    <edge id=":J1_19" function="internal">
        <lane id=":J1_19_0" index="0" speed="11.29" length="7.79" width="4.00" shape="-16.00,-2.00 -8.29,-0.90"/>
    </edge>
    <edge id=":J1_23" function="internal">
        <lane id=":J1_23_0" index="0" speed="11.29" length="21.24" width="4.00" shape="-8.29,-0.90 -8.12,-0.88 -2.50,2.50 0.88,8.12 2.00,16.00"/>
    </edge>

    <edge id="-E0" from="J1" to="J0" priority="-1" length="300.00">
        <lane id="-E0_0" index="0" speed="20.00" length="300.00" width="4.00" shape="-16.00,10.00 -300.00,10.00"/>
        <lane id="-E0_1" index="1" speed="20.00" length="300.00" width="4.00" shape="-16.00,6.00 -300.00,6.00"/>
        <lane id="-E0_2" index="2" speed="20.00" length="300.00" width="4.00" shape="-16.00,2.00 -300.00,2.00"/>
    </edge>
    <edge id="-E1" from="J1" to="J2" priority="-1" length="300.00">
        <lane id="-E1_0" index="0" speed="20.00" length="300.00" width="4.00" shape="16.00,-10.00 300.00,-10.00"/>
        <lane id="-E1_1" index="1" speed="20.00" length="300.00" width="4.00" shape="16.00,-6.00 300.00,-6.00"/>
        <lane id="-E1_2" index="2" speed="20.00" length="300.00" width="4.00" shape="16.00,-2.00 300.00,-2.00"/>
    </edge>
    <edge id="-E2" from="J1" to="J3" priority="-1">
        <lane id="-E2_0" index="0" speed="20.00" length="84.00" width="4.00" shape="10.00,16.00 10.00,100.00"/>
        <lane id="-E2_1" index="1" speed="20.00" length="84.00" width="4.00" shape="6.00,16.00 6.00,100.00"/>
        <lane id="-E2_2" index="2" speed="20.00" length="84.00" width="4.00" shape="2.00,16.00 2.00,100.00"/>
    </edge>
    <edge id="-E3" from="J1" to="J4" priority="-1">
        <lane id="-E3_0" index="0" speed="20.00" length="84.00" width="4.00" shape="-10.00,-16.00 -10.00,-100.00"/>
        <lane id="-E3_1" index="1" speed="20.00" length="84.00" width="4.00" shape="-6.00,-16.00 -6.00,-100.00"/>
        <lane id="-E3_2" index="2" speed="20.00" length="84.00" width="4.00" shape="-2.00,-16.00 -2.00,-100.00"/>
    </edge>
    <edge id="E0" from="J0" to="J1" priority="-1" length="300.00">
        <lane id="E0_0" index="0" speed="20.00" length="300.00" width="4.00" shape="-300.00,-10.00 -16.00,-10.00"/>
        <lane id="E0_1" index="1" speed="20.00" length="300.00" width="4.00" shape="-300.00,-6.00 -16.00,-6.00"/>
        <lane id="E0_2" index="2" speed="20.00" length="300.00" width="4.00" shape="-300.00,-2.00 -16.00,-2.00"/>
    </edge>
    <edge id="E1" from="J2" to="J1" priority="-1" length="300.00">
        <lane id="E1_0" index="0" speed="20.00" length="300.00" width="4.00" shape="300.00,10.00 16.00,10.00"/>
        <lane id="E1_1" index="1" speed="20.00" length="300.00" width="4.00" shape="300.00,6.00 16.00,6.00"/>
        <lane id="E1_2" index="2" speed="20.00" length="300.00" width="4.00" shape="300.00,2.00 16.00,2.00"/>
    </edge>
    <edge id="E2" from="J3" to="J1" priority="-1">
        <lane id="E2_0" index="0" speed="20.00" length="84.00" width="4.00" shape="-10.00,100.00 -10.00,16.00"/>
        <lane id="E2_1" index="1" speed="20.00" length="84.00" width="4.00" shape="-6.00,100.00 -6.00,16.00"/>
        <lane id="E2_2" index="2" speed="20.00" length="84.00" width="4.00" shape="-2.00,100.00 -2.00,16.00"/>
    </edge>
    <edge id="E3" from="J4" to="J1" priority="-1">
        <lane id="E3_0" index="0" speed="20.00" length="84.00" width="4.00" shape="10.00,-100.00 10.00,-16.00"/>
        <lane id="E3_1" index="1" speed="20.00" length="84.00" width="4.00" shape="6.00,-100.00 6.00,-16.00"/>
        <lane id="E3_2" index="2" speed="20.00" length="84.00" width="4.00" shape="2.00,-100.00 2.00,-16.00"/>
    </edge>

    <tlLogic id="J1" type="static" programID="0" offset="0">
        <phase duration="40" state="GGGGgrrrrrGGGGgrrrrr"/>
        <phase duration="5"  state="yyyyyrrrrryyyyyrrrrr"/>
        <phase duration="40" state="rrrrrGGGGgrrrrrGGGGg"/>
        <phase duration="5"  state="rrrrryyyyyrrrrryyyyy"/>
    </tlLogic>

    <junction id="J0" type="dead_end" x="-300.00" y="0.00" incLanes="-E0_0 -E0_1 -E0_2" intLanes="" shape="-300.00,0.00 -300.00,12.00 -300.00,0.00"/>
    <junction id="J1" type="traffic_light" x="0.00" y="0.00" incLanes="E2_0 E2_1 E2_2 E1_0 E1_1 E1_2 E3_0 E3_1 E3_2 E0_0 E0_1 E0_2" intLanes=":J1_0_0 :J1_1_0 :J1_1_1 :J1_1_2 :J1_20_0 :J1_5_0 :J1_6_0 :J1_6_1 :J1_6_2 :J1_21_0 :J1_10_0 :J1_11_0 :J1_11_1 :J1_11_2 :J1_22_0 :J1_15_0 :J1_16_0 :J1_16_1 :J1_16_2 :J1_23_0" shape="-12.00,16.00 12.00,16.00 12.44,13.78 13.00,13.00 13.78,12.44 14.78,12.11 16.00,12.00 16.00,-12.00 13.78,-12.44 13.00,-13.00 12.44,-13.78 12.11,-14.78 12.00,-16.00 -12.00,-16.00 -12.44,-13.78 -13.00,-13.00 -13.78,-12.44 -14.78,-12.11 -16.00,-12.00 -16.00,12.00 -13.78,12.44 -13.00,13.00 -12.44,13.78 -12.11,14.78">
        <request index="0"  response="00000000000000000000" foes="00000000000111000000" cont="0"/>
        <request index="1"  response="10000000001000000000" foes="11111100001111000000" cont="0"/>
        <request index="2"  response="10000000001000000000" foes="11111100001111000000" cont="0"/>
        <request index="3"  response="10000000001000000000" foes="11111100001111000000" cont="0"/>
        <request index="4"  response="10000011101000000000" foes="11110011101111000000" cont="1"/>
        <request index="5"  response="00000011100000000000" foes="00000011100000000000" cont="0"/>
        <request index="6"  response="00000111100000011111" foes="10000111100000011111" cont="0"/>
        <request index="7"  response="00000111100000011111" foes="10000111100000011111" cont="0"/>
        <request index="8"  response="00000111100000011111" foes="10000111100000011111" cont="0"/>
        <request index="9"  response="01110111100000011110" foes="01110111100000011110" cont="1"/>
        <request index="10" response="00000000000000000000" foes="01110000000000000000" cont="0"/>
        <request index="11" response="10000000001000000000" foes="11110000001111110000" cont="0"/>
        <request index="12" response="10000000001000000000" foes="11110000001111110000" cont="0"/>
        <request index="13" response="10000000001000000000" foes="11110000001111110000" cont="0"/>
        <request index="14" response="10000000001000001110" foes="11110000001111001110" cont="1"/>
        <request index="15" response="00000000000000001110" foes="00000000000000001110" cont="0"/>
        <request index="16" response="00000111110000011110" foes="00000111111000011110" cont="0"/>
        <request index="17" response="00000111110000011110" foes="00000111111000011110" cont="0"/>
        <request index="18" response="00000111110000011110" foes="00000111111000011110" cont="0"/>
        <request index="19" response="00000111100111011110" foes="00000111100111011110" cont="1"/>
    </junction>
    <junction id="J2" type="dead_end" x="300.00" y="0.00" incLanes="-E1_0 -E1_1 -E1_2" intLanes="" shape="300.00,0.00 300.00,-12.00 300.00,0.00"/>
    <junction id="J3" type="dead_end" x="0.00" y="100.00" incLanes="-E2_0 -E2_1 -E2_2" intLanes="" shape="0.00,100.00 12.00,100.00 0.00,100.00"/>
    <junction id="J4" type="dead_end" x="0.00" y="-100.00" incLanes="-E3_0 -E3_1 -E3_2" intLanes="" shape="0.00,-100.00 -12.00,-100.00 0.00,-100.00"/>

    <junction id=":J1_20_0" type="internal" x="-0.90" y="8.29" incLanes=":J1_4_0 E3_0 E3_1 E3_2" intLanes=":J1_6_0 :J1_6_1 :J1_6_2 :J1_9_0 :J1_10_0 :J1_11_0 :J1_11_1 :J1_11_2 :J1_16_0 :J1_16_1 :J1_16_2 :J1_19_0"/>
    <junction id=":J1_21_0" type="internal" x="8.29" y="0.90" incLanes=":J1_9_0 E0_0 E0_1 E0_2" intLanes=":J1_1_0 :J1_1_1 :J1_1_2 :J1_4_0 :J1_11_0 :J1_11_1 :J1_11_2 :J1_14_0 :J1_15_0 :J1_16_0 :J1_16_1 :J1_16_2"/>
    <junction id=":J1_22_0" type="internal" x="0.90" y="-8.29" incLanes=":J1_14_0 E2_0 E2_1 E2_2" intLanes=":J1_0_0 :J1_1_0 :J1_1_1 :J1_1_2 :J1_6_0 :J1_6_1 :J1_6_2 :J1_9_0 :J1_16_0 :J1_16_1 :J1_16_2 :J1_19_0"/>
    <junction id=":J1_23_0" type="internal" x="-8.29" y="-0.90" incLanes=":J1_19_0 E1_0 E1_1 E1_2" intLanes=":J1_1_0 :J1_1_1 :J1_1_2 :J1_4_0 :J1_5_0 :J1_6_0 :J1_6_1 :J1_6_2 :J1_11_0 :J1_11_1 :J1_11_2 :J1_14_0"/>

    <connection from="E0" to="-E3" fromLane="0" toLane="0" via=":J1_15_0" tl="J1" linkIndex="15" dir="r" state="o"/>
    <connection from="E0" to="-E1" fromLane="0" toLane="0" via=":J1_16_0" tl="J1" linkIndex="16" dir="s" state="o"/>
    <connection from="E0" to="-E1" fromLane="1" toLane="1" via=":J1_16_1" tl="J1" linkIndex="17" dir="s" state="o"/>
    <connection from="E0" to="-E1" fromLane="2" toLane="2" via=":J1_16_2" tl="J1" linkIndex="18" dir="s" state="o"/>
    <connection from="E0" to="-E2" fromLane="2" toLane="2" via=":J1_19_0" tl="J1" linkIndex="19" dir="l" state="o"/>
    <connection from="E1" to="-E2" fromLane="0" toLane="0" via=":J1_5_0" tl="J1" linkIndex="5" dir="r" state="o"/>
    <connection from="E1" to="-E0" fromLane="0" toLane="0" via=":J1_6_0" tl="J1" linkIndex="6" dir="s" state="o"/>
    <connection from="E1" to="-E0" fromLane="1" toLane="1" via=":J1_6_1" tl="J1" linkIndex="7" dir="s" state="o"/>
    <connection from="E1" to="-E0" fromLane="2" toLane="2" via=":J1_6_2" tl="J1" linkIndex="8" dir="s" state="o"/>
    <connection from="E1" to="-E3" fromLane="2" toLane="2" via=":J1_9_0" tl="J1" linkIndex="9" dir="l" state="o"/>
    <connection from="E2" to="-E0" fromLane="0" toLane="0" via=":J1_0_0" tl="J1" linkIndex="0" dir="r" state="O"/>
    <connection from="E2" to="-E3" fromLane="0" toLane="0" via=":J1_1_0" tl="J1" linkIndex="1" dir="s" state="O"/>
    <connection from="E2" to="-E3" fromLane="1" toLane="1" via=":J1_1_1" tl="J1" linkIndex="2" dir="s" state="O"/>
    <connection from="E2" to="-E3" fromLane="2" toLane="2" via=":J1_1_2" tl="J1" linkIndex="3" dir="s" state="O"/>
    <connection from="E2" to="-E1" fromLane="2" toLane="2" via=":J1_4_0" tl="J1" linkIndex="4" dir="l" state="o"/>
    <connection from="E3" to="-E1" fromLane="0" toLane="0" via=":J1_10_0" tl="J1" linkIndex="10" dir="r" state="O"/>
    <connection from="E3" to="-E2" fromLane="0" toLane="0" via=":J1_11_0" tl="J1" linkIndex="11" dir="s" state="O"/>
    <connection from="E3" to="-E2" fromLane="1" toLane="1" via=":J1_11_1" tl="J1" linkIndex="12" dir="s" state="O"/>
    <connection from="E3" to="-E2" fromLane="2" toLane="2" via=":J1_11_2" tl="J1" linkIndex="13" dir="s" state="O"/>
    <connection from="E3" to="-E0" fromLane="2" toLane="2" via=":J1_14_0" tl="J1" linkIndex="14" dir="l" state="o"/>

    <connection from=":J1_0" to="-E0" fromLane="0" toLane="0" dir="r" state="M"/>
    <connection from=":J1_1" to="-E3" fromLane="0" toLane="0" dir="s" state="M"/>
    <connection from=":J1_1" to="-E3" fromLane="1" toLane="1" dir="s" state="M"/>
    <connection from=":J1_1" to="-E3" fromLane="2" toLane="2" dir="s" state="M"/>
    <connection from=":J1_4" to="-E1" fromLane="0" toLane="2" via=":J1_20_0" dir="l" state="m"/>
    <connection from=":J1_20" to="-E1" fromLane="0" toLane="2" dir="l" state="M"/>
    <connection from=":J1_5" to="-E2" fromLane="0" toLane="0" dir="r" state="M"/>
    <connection from=":J1_6" to="-E0" fromLane="0" toLane="0" dir="s" state="M"/>
    <connection from=":J1_6" to="-E0" fromLane="1" toLane="1" dir="s" state="M"/>
    <connection from=":J1_6" to="-E0" fromLane="2" toLane="2" dir="s" state="M"/>
    <connection from=":J1_9" to="-E3" fromLane="0" toLane="2" via=":J1_21_0" dir="l" state="m"/>
    <connection from=":J1_21" to="-E3" fromLane="0" toLane="2" dir="l" state="M"/>
    <connection from=":J1_10" to="-E1" fromLane="0" toLane="0" dir="r" state="M"/>
    <connection from=":J1_11" to="-E2" fromLane="0" toLane="0" dir="s" state="M"/>
    <connection from=":J1_11" to="-E2" fromLane="1" toLane="1" dir="s" state="M"/>
    <connection from=":J1_11" to="-E2" fromLane="2" toLane="2" dir="s" state="M"/>
    <connection from=":J1_14" to="-E0" fromLane="0" toLane="2" via=":J1_22_0" dir="l" state="m"/>
    <connection from=":J1_22" to="-E0" fromLane="0" toLane="2" dir="l" state="M"/>
    <connection from=":J1_15" to="-E3" fromLane="0" toLane="0" dir="r" state="M"/>
    <connection from=":J1_16" to="-E1" fromLane="0" toLane="0" dir="s" state="M"/>
    <connection from=":J1_16" to="-E1" fromLane="1" toLane="1" dir="s" state="M"/>
    <connection from=":J1_16" to="-E1" fromLane="2" toLane="2" dir="s" state="M"/>
    <connection from=":J1_19" to="-E2" fromLane="0" toLane="2" via=":J1_23_0" dir="l" state="m"/>
    <connection from=":J1_23" to="-E2" fromLane="0" toLane="2" dir="l" state="M"/>

</net>
